data_image0
_chemical_formula_structural       C6H6Ni96
_chemical_formula_sum              "C6 H6 Ni96"
_cell_length_a       9.84403
_cell_length_b       9.84403
_cell_length_c       36.1693
_cell_angle_alpha    90
_cell_angle_beta     90
_cell_angle_gamma    120

_space_group_name_H-M_alt    "P 1"
_space_group_IT_number       1

loop_
  _space_group_symop_operation_xyz
  'x, y, z'

loop_
  _atom_site_type_symbol
  _atom_site_label
  _atom_site_symmetry_multiplicity
  _atom_site_fract_x
  _atom_site_fract_y
  _atom_site_fract_z
  _atom_site_occupancy
  C   C1        1.0  0.04067  0.33500  0.69525  1.0000
  C   C2        1.0  0.21194  0.42385  0.69574  1.0000
  C   C3        1.0  0.29429  0.33510  0.69525  1.0000
  C   C4        1.0  0.20950  0.16569  0.69532  1.0000
  C   C5        1.0  0.03846  0.07706  0.69571  1.0000
  C   C6        1.0  0.95597  0.16566  0.69533  1.0000
  H   H1        1.0  0.97763  0.39575  0.70325  1.0000
  H   H2        1.0  0.26978  0.53967  0.70889  1.0000
  H   H3        1.0  0.41795  0.39568  0.70324  1.0000
  H   H4        1.0  0.27246  0.10494  0.70335  1.0000
  H   H5        1.0  0.98027  0.96068  0.70859  1.0000
  H   H6        1.0  0.83232  0.10498  0.70336  1.0000
  Ni  Ni1       1.0  0.08333  0.16667  0.36111  1.0000
  Ni  Ni2       1.0  0.00000  0.00000  0.47222  1.0000
  Ni  Ni3       1.0  0.16667  0.08333  0.41667  1.0000
  Ni  Ni4       1.0  0.08383  0.16764  0.52816  1.0000
  Ni  Ni5       1.0  0.25980  0.24876  0.64163  1.0000
  Ni  Ni6       1.0  0.16766  0.08573  0.58401  1.0000
  Ni  Ni7       1.0  0.08333  0.41667  0.36111  1.0000
  Ni  Ni8       1.0  0.00000  0.25000  0.47222  1.0000
  Ni  Ni9       1.0  0.16667  0.33333  0.41667  1.0000
  Ni  Ni10      1.0  0.08467  0.41775  0.52799  1.0000
  Ni  Ni11      1.0  0.24822  0.49650  0.64226  1.0000
  Ni  Ni12      1.0  0.16595  0.33196  0.58488  1.0000
  Ni  Ni13      1.0  0.08333  0.66667  0.36111  1.0000
  Ni  Ni14      1.0  0.00000  0.50000  0.47222  1.0000
  Ni  Ni15      1.0  0.16667  0.58333  0.41667  1.0000
  Ni  Ni16      1.0  0.08511  0.66839  0.52762  1.0000
  Ni  Ni17      1.0  0.24957  0.74806  0.63899  1.0000
  Ni  Ni18      1.0  0.16759  0.58189  0.58361  1.0000
  Ni  Ni19      1.0  0.08333  0.91667  0.36111  1.0000
  Ni  Ni20      1.0  0.00000  0.75000  0.47222  1.0000
  Ni  Ni21      1.0  0.16667  0.83333  0.41667  1.0000
  Ni  Ni22      1.0  0.08427  0.91847  0.52784  1.0000
  Ni  Ni23      1.0  0.25209  0.99684  0.63849  1.0000
  Ni  Ni24      1.0  0.16799  0.83457  0.58288  1.0000
  Ni  Ni25      1.0  0.33333  0.16667  0.36111  1.0000
  Ni  Ni26      1.0  0.25000  0.00000  0.47222  1.0000
  Ni  Ni27      1.0  0.41667  0.08333  0.41667  1.0000
  Ni  Ni28      1.0  0.33397  0.16856  0.52766  1.0000
  Ni  Ni29      1.0  0.50501  0.25005  0.63780  1.0000
  Ni  Ni30      1.0  0.41745  0.08442  0.58249  1.0000
  Ni  Ni31      1.0  0.33333  0.41667  0.36111  1.0000
  Ni  Ni32      1.0  0.25000  0.25000  0.47222  1.0000
  Ni  Ni33      1.0  0.41667  0.33333  0.41667  1.0000
  Ni  Ni34      1.0  0.33309  0.41773  0.52799  1.0000
  Ni  Ni35      1.0  0.50481  0.50248  0.63856  1.0000
  Ni  Ni36      1.0  0.41607  0.33444  0.58313  1.0000
  Ni  Ni37      1.0  0.33333  0.66667  0.36111  1.0000
  Ni  Ni38      1.0  0.25000  0.50000  0.47222  1.0000
  Ni  Ni39      1.0  0.41667  0.58333  0.41667  1.0000
  Ni  Ni40      1.0  0.33387  0.66770  0.52779  1.0000
  Ni  Ni41      1.0  0.49847  0.74807  0.63899  1.0000
  Ni  Ni42      1.0  0.41433  0.58189  0.58361  1.0000
  Ni  Ni43      1.0  0.33333  0.91667  0.36111  1.0000
  Ni  Ni44      1.0  0.25000  0.75000  0.47222  1.0000
  Ni  Ni45      1.0  0.41667  0.83333  0.41667  1.0000
  Ni  Ni46      1.0  0.33445  0.91841  0.52752  1.0000
  Ni  Ni47      1.0  0.49872  0.99738  0.63888  1.0000
  Ni  Ni48      1.0  0.41634  0.83280  0.58277  1.0000
  Ni  Ni49      1.0  0.58333  0.16667  0.36111  1.0000
  Ni  Ni50      1.0  0.50000  0.00000  0.47222  1.0000
  Ni  Ni51      1.0  0.66667  0.08333  0.41667  1.0000
  Ni  Ni52      1.0  0.58450  0.16887  0.52736  1.0000
  Ni  Ni53      1.0  0.74496  0.25002  0.63781  1.0000
  Ni  Ni54      1.0  0.66693  0.08436  0.58250  1.0000
  Ni  Ni55      1.0  0.58333  0.41667  0.36111  1.0000
  Ni  Ni56      1.0  0.50000  0.25000  0.47222  1.0000
  Ni  Ni57      1.0  0.66667  0.33333  0.41667  1.0000
  Ni  Ni58      1.0  0.58397  0.41894  0.52748  1.0000
  Ni  Ni59      1.0  0.75120  0.50249  0.63892  1.0000
  Ni  Ni60      1.0  0.66810  0.33626  0.58214  1.0000
  Ni  Ni61      1.0  0.58333  0.66667  0.36111  1.0000
  Ni  Ni62      1.0  0.50000  0.50000  0.47222  1.0000
  Ni  Ni63      1.0  0.66667  0.58333  0.41667  1.0000
  Ni  Ni64      1.0  0.58330  0.66838  0.52761  1.0000
  Ni  Ni65      1.0  0.75087  0.75185  0.63896  1.0000
  Ni  Ni66      1.0  0.66731  0.58592  0.58279  1.0000
  Ni  Ni67      1.0  0.58333  0.91667  0.36111  1.0000
  Ni  Ni68      1.0  0.50000  0.75000  0.47222  1.0000
  Ni  Ni69      1.0  0.66667  0.83333  0.41667  1.0000
  Ni  Ni70      1.0  0.58404  0.91844  0.52750  1.0000
  Ni  Ni71      1.0  0.74474  0.99684  0.63850  1.0000
  Ni  Ni72      1.0  0.66653  0.83455  0.58289  1.0000
  Ni  Ni73      1.0  0.83333  0.16667  0.36111  1.0000
  Ni  Ni74      1.0  0.75000  0.00000  0.47222  1.0000
  Ni  Ni75      1.0  0.91667  0.08333  0.41667  1.0000
  Ni  Ni76      1.0  0.83466  0.16862  0.52766  1.0000
  Ni  Ni77      1.0  0.98887  0.24875  0.64163  1.0000
  Ni  Ni78      1.0  0.91804  0.08581  0.58399  1.0000
  Ni  Ni79      1.0  0.83333  0.41667  0.36111  1.0000
  Ni  Ni80      1.0  0.75000  0.25000  0.47222  1.0000
  Ni  Ni81      1.0  0.91667  0.33333  0.41667  1.0000
  Ni  Ni82      1.0  0.83494  0.41899  0.52747  1.0000
  Ni  Ni83      1.0  0.99758  0.50242  0.63854  1.0000
  Ni  Ni84      1.0  0.91837  0.33440  0.58313  1.0000
  Ni  Ni85      1.0  0.83333  0.66667  0.36111  1.0000
  Ni  Ni86      1.0  0.75000  0.50000  0.47222  1.0000
  Ni  Ni87      1.0  0.91667  0.58333  0.41667  1.0000
  Ni  Ni88      1.0  0.83445  0.66890  0.52769  1.0000
  Ni  Ni89      1.0  0.00099  0.75184  0.63896  1.0000
  Ni  Ni90      1.0  0.91861  0.58591  0.58279  1.0000
  Ni  Ni91      1.0  0.83333  0.91667  0.36111  1.0000
  Ni  Ni92      1.0  0.75000  0.75000  0.47222  1.0000
  Ni  Ni93      1.0  0.91667  0.83333  0.41667  1.0000
  Ni  Ni94      1.0  0.83417  0.91843  0.52784  1.0000
  Ni  Ni95      1.0  0.00145  0.00294  0.64209  1.0000
  Ni  Ni96      1.0  0.91895  0.83793  0.58368  1.0000
