data_image0
_chemical_formula_structural       C6H6Ni9Pt3Ni9Pt3Ni9Pt3Ni9Pt3Ni9Pt3Ni9Pt3Ni9Pt3Ni9Pt3
_chemical_formula_sum              "C6 H6 Ni72 Pt24"
_cell_length_a       10.2386
_cell_length_b       10.2386
_cell_length_c       37.619
_cell_angle_alpha    90
_cell_angle_beta     90
_cell_angle_gamma    60

_space_group_name_H-M_alt    "P 1"
_space_group_IT_number       1

loop_
  _space_group_symop_operation_xyz
  'x, y, z'

loop_
  _atom_site_type_symbol
  _atom_site_label
  _atom_site_symmetry_multiplicity
  _atom_site_fract_x
  _atom_site_fract_y
  _atom_site_fract_z
  _atom_site_occupancy
  C   C1        1.0  0.58372  0.20807  0.69462  1.0000
  C   C2        1.0  0.66957  0.28687  0.69553  1.0000
  C   C3        1.0  0.83098  0.20665  0.69571  1.0000
  C   C4        1.0  0.91829  0.04074  0.69568  1.0000
  C   C5        1.0  0.83102  0.96218  0.69568  1.0000
  C   C6        1.0  0.66959  0.04341  0.69553  1.0000
  H   H1        1.0  0.47153  0.26411  0.70687  1.0000
  H   H2        1.0  0.61068  0.40551  0.70344  1.0000
  H   H3        1.0  0.88949  0.26704  0.70334  1.0000
  H   H4        1.0  0.02374  0.98800  0.71093  1.0000
  H   H5        1.0  0.88947  0.84321  0.70331  1.0000
  H   H6        1.0  0.61069  0.98365  0.70341  1.0000
  Ni  Ni1       1.0  0.16667  0.41667  0.41667  1.0000
  Ni  Ni2       1.0  0.33333  0.08333  0.36111  1.0000
  Ni  Ni3       1.0  0.00000  0.25000  0.47222  1.0000
  Ni  Ni4       1.0  0.41667  0.41667  0.41667  1.0000
  Ni  Ni5       1.0  0.08333  0.08333  0.36111  1.0000
  Ni  Ni6       1.0  0.25000  0.25000  0.47222  1.0000
  Ni  Ni7       1.0  0.41667  0.16667  0.41667  1.0000
  Ni  Ni8       1.0  0.08333  0.33333  0.36111  1.0000
  Ni  Ni9       1.0  0.25000  0.00000  0.47222  1.0000
  Pt  Pt1       1.0  0.33333  0.33333  0.36111  1.0000
  Pt  Pt2       1.0  0.00000  0.00000  0.47222  1.0000
  Pt  Pt3       1.0  0.16667  0.16667  0.41667  1.0000
  Ni  Ni10      1.0  0.16557  0.41725  0.58297  1.0000
  Ni  Ni11      1.0  0.33348  0.08404  0.52748  1.0000
  Ni  Ni12      1.0  0.99956  0.25408  0.63821  1.0000
  Ni  Ni13      1.0  0.41914  0.41395  0.58352  1.0000
  Ni  Ni14      1.0  0.08316  0.08323  0.52782  1.0000
  Ni  Ni15      1.0  0.25385  0.25219  0.63888  1.0000
  Ni  Ni16      1.0  0.41916  0.16701  0.58354  1.0000
  Ni  Ni17      1.0  0.08334  0.33346  0.52753  1.0000
  Ni  Ni18      1.0  0.25101  0.99637  0.63821  1.0000
  Pt  Pt4       1.0  0.33396  0.33313  0.52790  1.0000
  Pt  Pt5       1.0  0.00196  0.99902  0.64176  1.0000
  Pt  Pt6       1.0  0.16669  0.16734  0.58280  1.0000
  Ni  Ni19      1.0  0.16667  0.91667  0.41667  1.0000
  Ni  Ni20      1.0  0.33333  0.58333  0.36111  1.0000
  Ni  Ni21      1.0  1.00000  0.75000  0.47222  1.0000
  Ni  Ni22      1.0  0.41667  0.91667  0.41667  1.0000
  Ni  Ni23      1.0  0.08333  0.58333  0.36111  1.0000
  Ni  Ni24      1.0  0.25000  0.75000  0.47222  1.0000
  Ni  Ni25      1.0  0.41667  0.66667  0.41667  1.0000
  Ni  Ni26      1.0  0.08333  0.83333  0.36111  1.0000
  Ni  Ni27      1.0  0.25000  0.50000  0.47222  1.0000
  Pt  Pt7       1.0  0.33333  0.83333  0.36111  1.0000
  Pt  Pt8       1.0  0.00000  0.50000  0.47222  1.0000
  Pt  Pt9       1.0  0.16667  0.66667  0.41667  1.0000
  Ni  Ni28      1.0  0.16297  0.91854  0.58320  1.0000
  Ni  Ni29      1.0  0.33344  0.58274  0.52749  1.0000
  Ni  Ni30      1.0  0.99963  0.74629  0.63819  1.0000
  Ni  Ni31      1.0  0.41702  0.91856  0.58216  1.0000
  Ni  Ni32      1.0  0.08328  0.58333  0.52752  1.0000
  Ni  Ni33      1.0  0.25104  0.75265  0.63815  1.0000
  Ni  Ni34      1.0  0.41699  0.66456  0.58216  1.0000
  Ni  Ni35      1.0  0.08314  0.83379  0.52782  1.0000
  Ni  Ni36      1.0  0.25400  0.49392  0.63886  1.0000
  Pt  Pt10      1.0  0.33323  0.83348  0.52753  1.0000
  Pt  Pt11      1.0  0.00195  0.49900  0.64054  1.0000
  Pt  Pt12      1.0  0.16661  0.66606  0.58280  1.0000
  Ni  Ni37      1.0  0.66667  0.41667  0.41667  1.0000
  Ni  Ni38      1.0  0.83333  0.08333  0.36111  1.0000
  Ni  Ni39      1.0  0.50000  0.25000  0.47222  1.0000
  Ni  Ni40      1.0  0.91667  0.41667  0.41667  1.0000
  Ni  Ni41      1.0  0.58333  0.08333  0.36111  1.0000
  Ni  Ni42      1.0  0.75000  0.25000  0.47222  1.0000
  Ni  Ni43      1.0  0.91667  0.16667  0.41667  1.0000
  Ni  Ni44      1.0  0.58333  0.33333  0.36111  1.0000
  Ni  Ni45      1.0  0.75000  0.00000  0.47222  1.0000
  Pt  Pt13      1.0  0.83333  0.33333  0.36111  1.0000
  Pt  Pt14      1.0  0.50000  0.00000  0.47222  1.0000
  Pt  Pt15      1.0  0.66667  0.16667  0.41667  1.0000
  Ni  Ni46      1.0  0.66762  0.41488  0.58358  1.0000
  Ni  Ni47      1.0  0.83357  0.08330  0.52837  1.0000
  Ni  Ni48      1.0  0.50427  0.24791  0.64355  1.0000
  Ni  Ni49      1.0  0.91738  0.41800  0.58281  1.0000
  Ni  Ni50      1.0  0.58418  0.08368  0.52830  1.0000
  Ni  Ni51      1.0  0.75354  0.26164  0.64343  1.0000
  Ni  Ni52      1.0  0.91625  0.16643  0.58406  1.0000
  Ni  Ni53      1.0  0.58414  0.33237  0.52829  1.0000
  Ni  Ni54      1.0  0.75346  0.98492  0.64342  1.0000
  Pt  Pt16      1.0  0.83336  0.33304  0.52783  1.0000
  Pt  Pt17      1.0  0.49601  0.99745  0.63899  1.0000
  Pt  Pt18      1.0  0.66975  0.16522  0.58557  1.0000
  Ni  Ni55      1.0  0.66667  0.91667  0.41667  1.0000
  Ni  Ni56      1.0  0.83333  0.58333  0.36111  1.0000
  Ni  Ni57      1.0  0.50000  0.75000  0.47222  1.0000
  Ni  Ni58      1.0  0.91667  0.91667  0.41667  1.0000
  Ni  Ni59      1.0  0.58333  0.58333  0.36111  1.0000
  Ni  Ni60      1.0  0.75000  0.75000  0.47222  1.0000
  Ni  Ni61      1.0  0.91667  0.66667  0.41667  1.0000
  Ni  Ni62      1.0  0.58333  0.83333  0.36111  1.0000
  Ni  Ni63      1.0  0.75000  0.50000  0.47222  1.0000
  Pt  Pt19      1.0  0.83333  0.83333  0.36111  1.0000
  Pt  Pt20      1.0  0.50000  0.50000  0.47222  1.0000
  Pt  Pt21      1.0  0.66667  0.66667  0.41667  1.0000
  Ni  Ni64      1.0  0.66749  0.91758  0.58361  1.0000
  Ni  Ni65      1.0  0.83341  0.58341  0.52747  1.0000
  Ni  Ni66      1.0  0.49373  0.75321  0.63849  1.0000
  Ni  Ni67      1.0  0.91622  0.91738  0.58404  1.0000
  Ni  Ni68      1.0  0.58347  0.58275  0.52742  1.0000
  Ni  Ni69      1.0  0.75113  0.74707  0.63836  1.0000
  Ni  Ni70      1.0  0.91726  0.66478  0.58278  1.0000
  Ni  Ni71      1.0  0.58353  0.83392  0.52743  1.0000
  Ni  Ni72      1.0  0.75120  0.50182  0.63839  1.0000
  Pt  Pt22      1.0  0.83334  0.83388  0.52782  1.0000
  Pt  Pt23      1.0  0.49620  0.50650  0.63896  1.0000
  Pt  Pt24      1.0  0.66582  0.66709  0.58240  1.0000
