data_image0
_chemical_formula_structural       C6H6Mo6Pd12Mo6Pd12Mo6Pd12Mo6Pd12
_chemical_formula_sum              "C6 H6 Mo24 Pd48"
_cell_length_a       9.49358
_cell_length_b       9.49358
_cell_length_c       35.9822
_cell_angle_alpha    91.0242
_cell_angle_beta     91.0242
_cell_angle_gamma    119.499

_space_group_name_H-M_alt    "P 1"
_space_group_IT_number       1

loop_
  _space_group_symop_operation_xyz
  'x, y, z'

loop_
  _atom_site_type_symbol
  _atom_site_label
  _atom_site_symmetry_multiplicity
  _atom_site_fract_x
  _atom_site_fract_y
  _atom_site_fract_z
  _atom_site_occupancy
  C   C1        1.0  0.92742  0.26806  0.73005  1.0000
  C   C2        1.0  0.10044  0.35595  0.72933  1.0000
  C   C3        1.0  0.18798  0.27059  0.72790  1.0000
  C   C4        1.0  0.10308  0.09714  0.72831  1.0000
  C   C5        1.0  0.93325  0.01152  0.72940  1.0000
  C   C6        1.0  0.84449  0.09676  0.73005  1.0000
  H   H1        1.0  0.86081  0.33369  0.73350  1.0000
  H   H2        1.0  0.16489  0.48759  0.73300  1.0000
  H   H3        1.0  0.31991  0.33574  0.73100  1.0000
  H   H4        1.0  0.17164  0.03277  0.73011  1.0000
  H   H5        1.0  0.86882  0.87972  0.73101  1.0000
  H   H6        1.0  0.71381  0.02986  0.73368  1.0000
  Mo  Mo1       1.0  0.26562  0.26562  0.34375  1.0000
  Mo  Mo2       1.0  0.10937  0.10938  0.40625  1.0000
  Mo  Mo3       1.0  0.45312  0.45312  0.46875  1.0000
  Mo  Mo4       1.0  0.31286  0.31258  0.52896  1.0000
  Mo  Mo5       1.0  0.13499  0.13629  0.60016  1.0000
  Mo  Mo6       1.0  0.51678  0.51564  0.65037  1.0000
  Pd  Pd1       1.0  0.44211  0.27664  0.40625  1.0000
  Pd  Pd2       1.0  0.09836  0.43289  0.34375  1.0000
  Pd  Pd3       1.0  0.43289  0.09836  0.34375  1.0000
  Pd  Pd4       1.0  0.27664  0.44211  0.40625  1.0000
  Pd  Pd5       1.0  0.13888  0.47381  0.53165  1.0000
  Pd  Pd6       1.0  0.28586  0.12039  0.46875  1.0000
  Pd  Pd7       1.0  0.12039  0.28586  0.46875  1.0000
  Pd  Pd8       1.0  0.47464  0.13877  0.53131  1.0000
  Pd  Pd9       1.0  0.34517  0.17049  0.65893  1.0000
  Pd  Pd10      1.0  0.47239  0.30504  0.59289  1.0000
  Pd  Pd11      1.0  0.30347  0.47027  0.59389  1.0000
  Pd  Pd12      1.0  0.17824  0.34394  0.66190  1.0000
  Mo  Mo7       1.0  0.26563  0.76563  0.34375  1.0000
  Mo  Mo8       1.0  0.10937  0.60938  0.40625  1.0000
  Mo  Mo9       1.0  0.45312  0.95313  0.46875  1.0000
  Mo  Mo10      1.0  0.31337  0.81332  0.52871  1.0000
  Mo  Mo11      1.0  0.13569  0.63596  0.59910  1.0000
  Mo  Mo12      1.0  0.51530  0.01468  0.65034  1.0000
  Pd  Pd13      1.0  0.44211  0.77664  0.40625  1.0000
  Pd  Pd14      1.0  0.09836  0.93289  0.34375  1.0000
  Pd  Pd15      1.0  0.43289  0.59836  0.34375  1.0000
  Pd  Pd16      1.0  0.27664  0.94211  0.40625  1.0000
  Pd  Pd17      1.0  0.13874  0.97485  0.53144  1.0000
  Pd  Pd18      1.0  0.28586  0.62039  0.46875  1.0000
  Pd  Pd19      1.0  0.12039  0.78586  0.46875  1.0000
  Pd  Pd20      1.0  0.47358  0.63811  0.53147  1.0000
  Pd  Pd21      1.0  0.34495  0.67402  0.66019  1.0000
  Pd  Pd22      1.0  0.47161  0.80396  0.59289  1.0000
  Pd  Pd23      1.0  0.30442  0.97265  0.59283  1.0000
  Pd  Pd24      1.0  0.17341  0.84210  0.65985  1.0000
  Mo  Mo13      1.0  0.76562  0.26562  0.34375  1.0000
  Mo  Mo14      1.0  0.60938  0.10938  0.40625  1.0000
  Mo  Mo15      1.0  0.95313  0.45312  0.46875  1.0000
  Mo  Mo16      1.0  0.81347  0.31312  0.52884  1.0000
  Mo  Mo17      1.0  0.63643  0.13583  0.59930  1.0000
  Mo  Mo18      1.0  0.01758  0.51789  0.65004  1.0000
  Pd  Pd25      1.0  0.94211  0.27664  0.40625  1.0000
  Pd  Pd26      1.0  0.59836  0.43289  0.34375  1.0000
  Pd  Pd27      1.0  0.93289  0.09836  0.34375  1.0000
  Pd  Pd28      1.0  0.77664  0.44211  0.40625  1.0000
  Pd  Pd29      1.0  0.63875  0.47449  0.53123  1.0000
  Pd  Pd30      1.0  0.78586  0.12039  0.46875  1.0000
  Pd  Pd31      1.0  0.62039  0.28586  0.46875  1.0000
  Pd  Pd32      1.0  0.97476  0.13904  0.53147  1.0000
  Pd  Pd33      1.0  0.84164  0.17338  0.66147  1.0000
  Pd  Pd34      1.0  0.97052  0.30350  0.59363  1.0000
  Pd  Pd35      1.0  0.80419  0.47203  0.59278  1.0000
  Pd  Pd36      1.0  0.67260  0.34322  0.65974  1.0000
  Mo  Mo19      1.0  0.76563  0.76563  0.34375  1.0000
  Mo  Mo20      1.0  0.60938  0.60938  0.40625  1.0000
  Mo  Mo21      1.0  0.95313  0.95313  0.46875  1.0000
  Mo  Mo22      1.0  0.81340  0.81326  0.52884  1.0000
  Mo  Mo23      1.0  0.63683  0.63690  0.59873  1.0000
  Mo  Mo24      1.0  0.01445  0.00936  0.65153  1.0000
  Pd  Pd37      1.0  0.94211  0.77664  0.40625  1.0000
  Pd  Pd38      1.0  0.59836  0.93289  0.34375  1.0000
  Pd  Pd39      1.0  0.93289  0.59836  0.34375  1.0000
  Pd  Pd40      1.0  0.77664  0.94211  0.40625  1.0000
  Pd  Pd41      1.0  0.63883  0.97413  0.53136  1.0000
  Pd  Pd42      1.0  0.78586  0.62039  0.46875  1.0000
  Pd  Pd43      1.0  0.62039  0.78586  0.46875  1.0000
  Pd  Pd44      1.0  0.97465  0.63884  0.53130  1.0000
  Pd  Pd45      1.0  0.84317  0.67069  0.65981  1.0000
  Pd  Pd46      1.0  0.97187  0.80488  0.59299  1.0000
  Pd  Pd47      1.0  0.80603  0.97348  0.59296  1.0000
  Pd  Pd48      1.0  0.67238  0.84061  0.65901  1.0000
