data_image0
_chemical_formula_structural       C6H6YCu5YCu5YCu5YCu5YCu5YCu5YCu5YCu5YCu5YCu5YCu5YCu5
_chemical_formula_sum              "C6 H6 Y12 Cu60"
_cell_length_a       10.0167
_cell_length_b       10.0167
_cell_length_c       32.3563
_cell_angle_alpha    90
_cell_angle_beta     90
_cell_angle_gamma    120

_space_group_name_H-M_alt    "P 1"
_space_group_IT_number       1

loop_
  _space_group_symop_operation_xyz
  'x, y, z'

loop_
  _atom_site_type_symbol
  _atom_site_label
  _atom_site_symmetry_multiplicity
  _atom_site_fract_x
  _atom_site_fract_y
  _atom_site_fract_z
  _atom_site_occupancy
  C   C1        1.0  0.91824  0.08177  0.74304  1.0000
  C   C2        1.0  0.08182  0.16360  0.74303  1.0000
  C   C3        1.0  0.16355  0.08180  0.74305  1.0000
  C   C4        1.0  0.08179  0.91821  0.74305  1.0000
  C   C5        1.0  0.91819  0.83643  0.74304  1.0000
  C   C6        1.0  0.83640  0.91824  0.74304  1.0000
  H   H1        1.0  0.85531  0.14467  0.74302  1.0000
  H   H2        1.0  0.14466  0.28930  0.74302  1.0000
  H   H3        1.0  0.28937  0.14465  0.74303  1.0000
  H   H4        1.0  0.14468  0.85531  0.74304  1.0000
  H   H5        1.0  0.85532  0.71065  0.74304  1.0000
  H   H6        1.0  0.71064  0.85538  0.74303  1.0000
  Y   Y1        1.0  0.00000  0.00000  0.40625  1.0000
  Cu  Cu1       1.0  0.33333  0.16667  0.40625  1.0000
  Cu  Cu2       1.0  0.16667  0.33333  0.40625  1.0000
  Cu  Cu3       1.0  0.00000  0.25000  0.34375  1.0000
  Cu  Cu4       1.0  0.25000  0.00000  0.34375  1.0000
  Cu  Cu5       1.0  0.25000  0.25000  0.34375  1.0000
  Y   Y2        1.0  0.00000  0.00001  0.53340  1.0000
  Cu  Cu6       1.0  0.33308  0.16643  0.53165  1.0000
  Cu  Cu7       1.0  0.16654  0.33308  0.53164  1.0000
  Cu  Cu8       1.0  0.00000  0.25000  0.46875  1.0000
  Cu  Cu9       1.0  0.25000  0.00000  0.46875  1.0000
  Cu  Cu10      1.0  0.25000  0.25000  0.46875  1.0000
  Y   Y3        1.0  0.00000  0.00001  0.67022  1.0000
  Cu  Cu11      1.0  0.33472  0.16735  0.65900  1.0000
  Cu  Cu12      1.0  0.16727  0.33454  0.65901  1.0000
  Cu  Cu13      1.0  0.99994  0.24718  0.59511  1.0000
  Cu  Cu14      1.0  0.24757  0.00001  0.59512  1.0000
  Cu  Cu15      1.0  0.24725  0.24719  0.59512  1.0000
  Y   Y4        1.0  0.00000  0.50000  0.40625  1.0000
  Cu  Cu16      1.0  0.33333  0.66667  0.40625  1.0000
  Cu  Cu17      1.0  0.16667  0.83333  0.40625  1.0000
  Cu  Cu18      1.0  0.00000  0.75000  0.34375  1.0000
  Cu  Cu19      1.0  0.25000  0.50000  0.34375  1.0000
  Cu  Cu20      1.0  0.25000  0.75000  0.34375  1.0000
  Y   Y5        1.0  0.00000  0.50000  0.53127  1.0000
  Cu  Cu21      1.0  0.33327  0.66653  0.53137  1.0000
  Cu  Cu22      1.0  0.16665  0.83357  0.53164  1.0000
  Cu  Cu23      1.0  0.00000  0.75000  0.46875  1.0000
  Cu  Cu24      1.0  0.25000  0.50000  0.46875  1.0000
  Cu  Cu25      1.0  0.25000  0.75000  0.46875  1.0000
  Y   Y6        1.0  0.99999  0.49999  0.64877  1.0000
  Cu  Cu26      1.0  0.33333  0.66666  0.65914  1.0000
  Cu  Cu27      1.0  0.16737  0.83265  0.65900  1.0000
  Cu  Cu28      1.0  0.00006  0.75283  0.59512  1.0000
  Cu  Cu29      1.0  0.24966  0.49937  0.59416  1.0000
  Cu  Cu30      1.0  0.24960  0.74998  0.59414  1.0000
  Y   Y7        1.0  0.50000  0.00000  0.40625  1.0000
  Cu  Cu31      1.0  0.83333  0.16667  0.40625  1.0000
  Cu  Cu32      1.0  0.66667  0.33333  0.40625  1.0000
  Cu  Cu33      1.0  0.50000  0.25000  0.34375  1.0000
  Cu  Cu34      1.0  0.75000  0.00000  0.34375  1.0000
  Cu  Cu35      1.0  0.75000  0.25000  0.34375  1.0000
  Y   Y8        1.0  0.50000  0.00000  0.53122  1.0000
  Cu  Cu36      1.0  0.83335  0.16642  0.53165  1.0000
  Cu  Cu37      1.0  0.66673  0.33346  0.53137  1.0000
  Cu  Cu38      1.0  0.50000  0.25000  0.46875  1.0000
  Cu  Cu39      1.0  0.75000  0.00000  0.46875  1.0000
  Cu  Cu40      1.0  0.75000  0.25000  0.46875  1.0000
  Y   Y9        1.0  0.50001  0.00000  0.64873  1.0000
  Cu  Cu41      1.0  0.83265  0.16736  0.65899  1.0000
  Cu  Cu42      1.0  0.66666  0.33333  0.65914  1.0000
  Cu  Cu43      1.0  0.49963  0.25001  0.59414  1.0000
  Cu  Cu44      1.0  0.75244  1.00000  0.59512  1.0000
  Cu  Cu45      1.0  0.75040  0.25001  0.59414  1.0000
  Y   Y10       1.0  0.50000  0.50000  0.40625  1.0000
  Cu  Cu46      1.0  0.83333  0.66667  0.40625  1.0000
  Cu  Cu47      1.0  0.66667  0.83333  0.40625  1.0000
  Cu  Cu48      1.0  0.50000  0.75000  0.34375  1.0000
  Cu  Cu49      1.0  0.75000  0.50000  0.34375  1.0000
  Cu  Cu50      1.0  0.75000  0.75000  0.34375  1.0000
  Y   Y11       1.0  0.50000  0.50000  0.53127  1.0000
  Cu  Cu51      1.0  0.83346  0.66692  0.53163  1.0000
  Cu  Cu52      1.0  0.66692  0.83358  0.53165  1.0000
  Cu  Cu53      1.0  0.50000  0.75000  0.46875  1.0000
  Cu  Cu54      1.0  0.75000  0.50000  0.46875  1.0000
  Cu  Cu55      1.0  0.75000  0.75000  0.46875  1.0000
  Y   Y12       1.0  0.49999  0.49999  0.64875  1.0000
  Cu  Cu56      1.0  0.83270  0.66544  0.65901  1.0000
  Cu  Cu57      1.0  0.66528  0.83262  0.65900  1.0000
  Cu  Cu58      1.0  0.50037  0.74998  0.59414  1.0000
  Cu  Cu59      1.0  0.75032  0.50061  0.59416  1.0000
  Cu  Cu60      1.0  0.75274  0.75281  0.59511  1.0000
