data_image0
_chemical_formula_structural       C6H6Cu2Ni2Cu2Ni2Cu2Ni2Cu2Ni2Cu2Ni2Cu2Ni2Cu2Ni2Cu2Ni2Cu2Ni2Cu2Ni2Cu2Ni2Cu2Ni2Cu2Ni2Cu2Ni2Cu2Ni2Cu2Ni2Cu2Ni2Cu2Ni2Cu2Ni2Cu2Ni2Cu2Ni2Cu2Ni2Cu2Ni2Cu2Ni2Cu2Ni2Cu2Ni2Cu2Ni2Cu2Ni2Cu2Ni2Cu2Ni2Cu2Ni2Cu2Ni2Cu2Ni2Cu2Ni2Cu2Ni2Cu2Ni2
_chemical_formula_sum              "C6 H6 Cu72 Ni72"
_cell_length_a       9.82048
_cell_length_b       13.1507
_cell_length_c       35.0686
_cell_angle_alpha    68.1215
_cell_angle_beta     90
_cell_angle_gamma    90

_space_group_name_H-M_alt    "P 1"
_space_group_IT_number       1

loop_
  _space_group_symop_operation_xyz
  'x, y, z'

loop_
  _atom_site_type_symbol
  _atom_site_label
  _atom_site_symmetry_multiplicity
  _atom_site_fract_x
  _atom_site_fract_y
  _atom_site_fract_z
  _atom_site_occupancy
  C   C1        1.0  0.97827  0.98093  0.72316  1.0000
  C   C2        1.0  0.05312  0.07408  0.72520  1.0000
  C   C3        1.0  0.19697  0.07406  0.72519  1.0000
  C   C4        1.0  0.27184  0.98093  0.72317  1.0000
  C   C5        1.0  0.19917  0.88707  0.72257  1.0000
  C   C6        1.0  0.05086  0.88711  0.72256  1.0000
  H   H1        1.0  0.87029  0.97391  0.73112  1.0000
  H   H2        1.0  0.99757  0.13875  0.73103  1.0000
  H   H3        1.0  0.25254  0.13876  0.73102  1.0000
  H   H4        1.0  0.37978  0.97388  0.73111  1.0000
  H   H5        1.0  0.25173  0.80853  0.73111  1.0000
  H   H6        1.0  0.99829  0.80855  0.73111  1.0000
  Cu  Cu1       1.0  0.12500  0.00000  0.34375  1.0000
  Cu  Cu2       1.0  0.12500  0.16667  0.40625  1.0000
  Ni  Ni1       1.0  0.00000  0.00000  0.40625  1.0000
  Ni  Ni2       1.0  0.00000  0.16667  0.34375  1.0000
  Cu  Cu3       1.0  0.12500  0.00000  0.46875  1.0000
  Cu  Cu4       1.0  0.12498  0.16387  0.53172  1.0000
  Ni  Ni3       1.0  0.00062  0.99759  0.53183  1.0000
  Ni  Ni4       1.0  0.00000  0.16667  0.46875  1.0000
  Cu  Cu5       1.0  0.12498  0.99497  0.59600  1.0000
  Cu  Cu6       1.0  0.12501  0.16246  0.65861  1.0000
  Ni  Ni5       1.0  0.99310  0.98715  0.66259  1.0000
  Ni  Ni6       1.0  0.00174  0.15849  0.59558  1.0000
  Cu  Cu7       1.0  0.12500  0.33333  0.34375  1.0000
  Cu  Cu8       1.0  0.12500  0.50000  0.40625  1.0000
  Ni  Ni7       1.0  0.00000  0.33333  0.40625  1.0000
  Ni  Ni8       1.0  0.00000  0.50000  0.34375  1.0000
  Cu  Cu9       1.0  0.12500  0.33333  0.46875  1.0000
  Cu  Cu10      1.0  0.12501  0.49738  0.53137  1.0000
  Ni  Ni9       1.0  0.00015  0.33042  0.53142  1.0000
  Ni  Ni10      1.0  0.00000  0.50000  0.46875  1.0000
  Cu  Cu11      1.0  0.12498  0.32751  0.59387  1.0000
  Cu  Cu12      1.0  0.12500  0.49373  0.65841  1.0000
  Ni  Ni11      1.0  0.99873  0.33261  0.65573  1.0000
  Ni  Ni12      1.0  0.00004  0.49542  0.59407  1.0000
  Cu  Cu13      1.0  0.12500  0.66667  0.34375  1.0000
  Cu  Cu14      1.0  0.12500  0.83333  0.40625  1.0000
  Ni  Ni13      1.0  0.00000  0.66667  0.40625  1.0000
  Ni  Ni14      1.0  0.00000  0.83333  0.34375  1.0000
  Cu  Cu15      1.0  0.12500  0.66667  0.46875  1.0000
  Cu  Cu16      1.0  0.12500  0.83126  0.53129  1.0000
  Ni  Ni15      1.0  0.99998  0.66390  0.53139  1.0000
  Ni  Ni16      1.0  0.00000  0.83333  0.46875  1.0000
  Cu  Cu17      1.0  0.12499  0.66217  0.59378  1.0000
  Cu  Cu18      1.0  0.12501  0.82459  0.65750  1.0000
  Ni  Ni17      1.0  0.99982  0.66200  0.65637  1.0000
  Ni  Ni18      1.0  0.00000  0.82899  0.59417  1.0000
  Cu  Cu19      1.0  0.37500  0.00000  0.34375  1.0000
  Cu  Cu20      1.0  0.37500  0.16667  0.40625  1.0000
  Ni  Ni19      1.0  0.25000  0.00000  0.40625  1.0000
  Ni  Ni20      1.0  0.25000  0.16667  0.34375  1.0000
  Cu  Cu21      1.0  0.37500  0.00000  0.46875  1.0000
  Cu  Cu22      1.0  0.37429  0.16407  0.53149  1.0000
  Ni  Ni21      1.0  0.24932  0.99759  0.53185  1.0000
  Ni  Ni22      1.0  0.25000  0.16667  0.46875  1.0000
  Cu  Cu23      1.0  0.37352  0.99503  0.59461  1.0000
  Cu  Cu24      1.0  0.37782  0.16264  0.65628  1.0000
  Ni  Ni23      1.0  0.25687  0.98712  0.66260  1.0000
  Ni  Ni24      1.0  0.24825  0.15845  0.59559  1.0000
  Cu  Cu25      1.0  0.37500  0.33333  0.34375  1.0000
  Cu  Cu26      1.0  0.37500  0.50000  0.40625  1.0000
  Ni  Ni25      1.0  0.25000  0.33333  0.40625  1.0000
  Ni  Ni26      1.0  0.25000  0.50000  0.34375  1.0000
  Cu  Cu27      1.0  0.37500  0.33333  0.46875  1.0000
  Cu  Cu28      1.0  0.37504  0.49771  0.53125  1.0000
  Ni  Ni27      1.0  0.24979  0.33040  0.53142  1.0000
  Ni  Ni28      1.0  0.25000  0.50000  0.46875  1.0000
  Cu  Cu29      1.0  0.37475  0.32885  0.59335  1.0000
  Cu  Cu30      1.0  0.37539  0.49353  0.65851  1.0000
  Ni  Ni29      1.0  0.25131  0.33256  0.65572  1.0000
  Ni  Ni30      1.0  0.24999  0.49542  0.59408  1.0000
  Cu  Cu31      1.0  0.37500  0.66667  0.34375  1.0000
  Cu  Cu32      1.0  0.37500  0.83333  0.40625  1.0000
  Ni  Ni31      1.0  0.25000  0.66667  0.40625  1.0000
  Ni  Ni32      1.0  0.25000  0.83333  0.34375  1.0000
  Cu  Cu33      1.0  0.37500  0.66667  0.46875  1.0000
  Cu  Cu34      1.0  0.37482  0.83114  0.53128  1.0000
  Ni  Ni33      1.0  0.25001  0.66389  0.53140  1.0000
  Ni  Ni34      1.0  0.25000  0.83333  0.46875  1.0000
  Cu  Cu35      1.0  0.37512  0.66179  0.59381  1.0000
  Cu  Cu36      1.0  0.37688  0.82469  0.65782  1.0000
  Ni  Ni35      1.0  0.25017  0.66201  0.65637  1.0000
  Ni  Ni36      1.0  0.25001  0.82898  0.59417  1.0000
  Cu  Cu37      1.0  0.62500  0.00000  0.34375  1.0000
  Cu  Cu38      1.0  0.62500  0.16667  0.40625  1.0000
  Ni  Ni37      1.0  0.50000  0.00000  0.40625  1.0000
  Ni  Ni38      1.0  0.50000  0.16667  0.34375  1.0000
  Cu  Cu39      1.0  0.62500  0.00000  0.46875  1.0000
  Cu  Cu40      1.0  0.62497  0.16438  0.53100  1.0000
  Ni  Ni39      1.0  0.49936  0.99745  0.53151  1.0000
  Ni  Ni40      1.0  0.50000  0.16667  0.46875  1.0000
  Cu  Cu41      1.0  0.62498  0.99483  0.59336  1.0000
  Cu  Cu42      1.0  0.62499  0.16050  0.65809  1.0000
  Ni  Ni41      1.0  0.50330  0.99676  0.65559  1.0000
  Ni  Ni42      1.0  0.49993  0.16206  0.59350  1.0000
  Cu  Cu43      1.0  0.62500  0.33333  0.34375  1.0000
  Cu  Cu44      1.0  0.62500  0.50000  0.40625  1.0000
  Ni  Ni43      1.0  0.50000  0.33333  0.40625  1.0000
  Ni  Ni44      1.0  0.50000  0.50000  0.34375  1.0000
  Cu  Cu45      1.0  0.62500  0.33333  0.46875  1.0000
  Cu  Cu46      1.0  0.62500  0.49759  0.53137  1.0000
  Ni  Ni45      1.0  0.50011  0.33087  0.53125  1.0000
  Ni  Ni46      1.0  0.50000  0.50000  0.46875  1.0000
  Cu  Cu47      1.0  0.62497  0.32832  0.59372  1.0000
  Cu  Cu48      1.0  0.62500  0.49310  0.65855  1.0000
  Ni  Ni47      1.0  0.50084  0.32952  0.65665  1.0000
  Ni  Ni48      1.0  0.50002  0.49454  0.59443  1.0000
  Cu  Cu49      1.0  0.62500  0.66667  0.34375  1.0000
  Cu  Cu50      1.0  0.62500  0.83333  0.40625  1.0000
  Ni  Ni49      1.0  0.50000  0.66667  0.40625  1.0000
  Ni  Ni50      1.0  0.50000  0.83333  0.34375  1.0000
  Cu  Cu51      1.0  0.62500  0.66667  0.46875  1.0000
  Cu  Cu52      1.0  0.62501  0.83102  0.53129  1.0000
  Ni  Ni51      1.0  0.49994  0.66363  0.53146  1.0000
  Ni  Ni52      1.0  0.50000  0.83333  0.46875  1.0000
  Cu  Cu53      1.0  0.62501  0.66140  0.59384  1.0000
  Cu  Cu54      1.0  0.62501  0.82603  0.65851  1.0000
  Ni  Ni53      1.0  0.50039  0.66232  0.65652  1.0000
  Ni  Ni54      1.0  0.50019  0.82837  0.59415  1.0000
  Cu  Cu55      1.0  0.87500  0.00000  0.34375  1.0000
  Cu  Cu56      1.0  0.87500  0.16667  0.40625  1.0000
  Ni  Ni55      1.0  0.75000  0.00000  0.40625  1.0000
  Ni  Ni56      1.0  0.75000  0.16667  0.34375  1.0000
  Cu  Cu57      1.0  0.87500  0.00000  0.46875  1.0000
  Cu  Cu58      1.0  0.87570  0.16409  0.53149  1.0000
  Ni  Ni57      1.0  0.75058  0.99746  0.53150  1.0000
  Ni  Ni58      1.0  0.75000  0.16667  0.46875  1.0000
  Cu  Cu59      1.0  0.87645  0.99506  0.59460  1.0000
  Cu  Cu60      1.0  0.87222  0.16267  0.65627  1.0000
  Ni  Ni59      1.0  0.74671  0.99678  0.65558  1.0000
  Ni  Ni60      1.0  0.75004  0.16213  0.59348  1.0000
  Cu  Cu61      1.0  0.87500  0.33333  0.34375  1.0000
  Cu  Cu62      1.0  0.87500  0.50000  0.40625  1.0000
  Ni  Ni61      1.0  0.75000  0.33333  0.40625  1.0000
  Ni  Ni62      1.0  0.75000  0.50000  0.34375  1.0000
  Cu  Cu63      1.0  0.87500  0.33333  0.46875  1.0000
  Cu  Cu64      1.0  0.87494  0.49770  0.53125  1.0000
  Ni  Ni63      1.0  0.74983  0.33085  0.53127  1.0000
  Ni  Ni64      1.0  0.75000  0.50000  0.46875  1.0000
  Cu  Cu65      1.0  0.87525  0.32886  0.59334  1.0000
  Cu  Cu66      1.0  0.87461  0.49356  0.65850  1.0000
  Ni  Ni65      1.0  0.74917  0.32953  0.65663  1.0000
  Ni  Ni66      1.0  0.74996  0.49452  0.59442  1.0000
  Cu  Cu67      1.0  0.87500  0.66667  0.34375  1.0000
  Cu  Cu68      1.0  0.87500  0.83333  0.40625  1.0000
  Ni  Ni67      1.0  0.75000  0.66667  0.40625  1.0000
  Ni  Ni68      1.0  0.75000  0.83333  0.34375  1.0000
  Cu  Cu69      1.0  0.87500  0.66667  0.46875  1.0000
  Cu  Cu70      1.0  0.87516  0.83113  0.53128  1.0000
  Ni  Ni69      1.0  0.75007  0.66362  0.53146  1.0000
  Ni  Ni70      1.0  0.75000  0.83333  0.46875  1.0000
  Cu  Cu71      1.0  0.87488  0.66179  0.59382  1.0000
  Cu  Cu72      1.0  0.87315  0.82472  0.65782  1.0000
  Ni  Ni71      1.0  0.74960  0.66232  0.65653  1.0000
  Ni  Ni72      1.0  0.74982  0.82840  0.59415  1.0000
