data_image0
_chemical_formula_structural       C6H6Zn24Ni72
_chemical_formula_sum              "C6 H6 Zn24 Ni72"
_cell_length_a       10.0229
_cell_length_b       10.0229
_cell_length_c       36.8263
_cell_angle_alpha    90
_cell_angle_beta     90
_cell_angle_gamma    60

_space_group_name_H-M_alt    "P 1"
_space_group_IT_number       1

loop_
  _space_group_symop_operation_xyz
  'x, y, z'

loop_
  _atom_site_type_symbol
  _atom_site_label
  _atom_site_symmetry_multiplicity
  _atom_site_fract_x
  _atom_site_fract_y
  _atom_site_fract_z
  _atom_site_occupancy
  C   C1        1.0  0.44125  0.33178  0.70225  1.0000
  C   C2        1.0  0.44405  0.47214  0.70809  1.0000
  C   C3        1.0  0.58384  0.47210  0.70809  1.0000
  C   C4        1.0  0.72700  0.33172  0.70224  1.0000
  C   C5        1.0  0.72816  0.18861  0.69911  1.0000
  C   C6        1.0  0.58318  0.18865  0.69911  1.0000
  H   H1        1.0  0.33408  0.33097  0.70709  1.0000
  H   H2        1.0  0.33554  0.57915  0.71229  1.0000
  H   H3        1.0  0.58540  0.57910  0.71229  1.0000
  H   H4        1.0  0.83499  0.33090  0.70708  1.0000
  H   H5        1.0  0.83305  0.08105  0.70551  1.0000
  H   H6        1.0  0.58581  0.08111  0.70551  1.0000
  Zn  Zn1       1.0  0.33333  0.33333  0.36111  1.0000
  Zn  Zn2       1.0  0.00000  0.00000  0.47222  1.0000
  Zn  Zn3       1.0  0.16667  0.16667  0.41667  1.0000
  Zn  Zn4       1.0  0.33333  0.33333  0.52778  1.0000
  Zn  Zn5       1.0  0.00259  0.99805  0.64152  1.0000
  Zn  Zn6       1.0  0.16658  0.16681  0.58264  1.0000
  Zn  Zn7       1.0  0.33333  0.83333  0.36111  1.0000
  Zn  Zn8       1.0  0.00000  0.50000  0.47222  1.0000
  Zn  Zn9       1.0  0.16667  0.66667  0.41667  1.0000
  Zn  Zn10      1.0  0.33333  0.83333  0.52778  1.0000
  Zn  Zn11      1.0  0.99986  0.50030  0.64361  1.0000
  Zn  Zn12      1.0  0.16629  0.66674  0.58275  1.0000
  Zn  Zn13      1.0  0.83333  0.33333  0.36111  1.0000
  Zn  Zn14      1.0  0.50000  0.00000  0.47222  1.0000
  Zn  Zn15      1.0  0.66667  0.16667  0.41667  1.0000
  Zn  Zn16      1.0  0.83333  0.33333  0.52778  1.0000
  Zn  Zn17      1.0  0.49940  0.99798  0.64152  1.0000
  Zn  Zn18      1.0  0.66498  0.17000  0.58547  1.0000
  Zn  Zn19      1.0  0.83333  0.83333  0.36111  1.0000
  Zn  Zn20      1.0  0.50000  0.50000  0.47222  1.0000
  Zn  Zn21      1.0  0.66667  0.66667  0.41667  1.0000
  Zn  Zn22      1.0  0.83333  0.83333  0.52778  1.0000
  Zn  Zn23      1.0  0.49857  0.50285  0.63813  1.0000
  Zn  Zn24      1.0  0.66692  0.66676  0.58275  1.0000
  Ni  Ni1       1.0  0.41667  0.41667  0.41667  1.0000
  Ni  Ni2       1.0  0.08333  0.08333  0.36111  1.0000
  Ni  Ni3       1.0  0.25000  0.25000  0.47222  1.0000
  Ni  Ni4       1.0  0.16667  0.41667  0.41667  1.0000
  Ni  Ni5       1.0  0.33333  0.08333  0.36111  1.0000
  Ni  Ni6       1.0  0.00000  0.25000  0.47222  1.0000
  Ni  Ni7       1.0  0.41667  0.16667  0.41667  1.0000
  Ni  Ni8       1.0  0.08333  0.33333  0.36111  1.0000
  Ni  Ni9       1.0  0.25000  0.50000  0.47222  1.0000
  Ni  Ni10      1.0  0.41750  0.41491  0.58369  1.0000
  Ni  Ni11      1.0  0.08333  0.08333  0.52778  1.0000
  Ni  Ni12      1.0  0.24800  0.24998  0.63812  1.0000
  Ni  Ni13      1.0  0.16513  0.41755  0.58343  1.0000
  Ni  Ni14      1.0  0.33333  0.08333  0.52778  1.0000
  Ni  Ni15      1.0  0.00201  0.25005  0.63811  1.0000
  Ni  Ni16      1.0  0.41881  0.16740  0.58438  1.0000
  Ni  Ni17      1.0  0.08333  0.33333  0.52778  1.0000
  Ni  Ni18      1.0  0.24766  0.49952  0.63815  1.0000
  Ni  Ni19      1.0  0.41667  0.91667  0.41667  1.0000
  Ni  Ni20      1.0  0.08333  0.58333  0.36111  1.0000
  Ni  Ni21      1.0  0.25000  0.75000  0.47222  1.0000
  Ni  Ni22      1.0  0.16667  0.91667  0.41667  1.0000
  Ni  Ni23      1.0  0.33333  0.58333  0.36111  1.0000
  Ni  Ni24      1.0  1.00000  0.75000  0.47222  1.0000
  Ni  Ni25      1.0  0.41667  0.66667  0.41667  1.0000
  Ni  Ni26      1.0  0.08333  0.83333  0.36111  1.0000
  Ni  Ni27      1.0  0.25000  0.00000  0.47222  1.0000
  Ni  Ni28      1.0  0.41736  0.91859  0.58300  1.0000
  Ni  Ni29      1.0  0.08333  0.58333  0.52778  1.0000
  Ni  Ni30      1.0  0.24932  0.75117  0.63779  1.0000
  Ni  Ni31      1.0  0.16395  0.91863  0.58300  1.0000
  Ni  Ni32      1.0  0.33333  0.58333  0.52778  1.0000
  Ni  Ni33      1.0  0.99925  0.74994  0.63816  1.0000
  Ni  Ni34      1.0  0.41679  0.66637  0.58257  1.0000
  Ni  Ni35      1.0  0.08333  0.83333  0.52778  1.0000
  Ni  Ni36      1.0  0.25099  0.99806  0.63810  1.0000
  Ni  Ni37      1.0  0.91667  0.41667  0.41667  1.0000
  Ni  Ni38      1.0  0.58333  0.08333  0.36111  1.0000
  Ni  Ni39      1.0  0.75000  0.25000  0.47222  1.0000
  Ni  Ni40      1.0  0.66667  0.41667  0.41667  1.0000
  Ni  Ni41      1.0  0.83333  0.08333  0.36111  1.0000
  Ni  Ni42      1.0  0.50000  0.25000  0.47222  1.0000
  Ni  Ni43      1.0  0.91667  0.16667  0.41667  1.0000
  Ni  Ni44      1.0  0.58333  0.33333  0.36111  1.0000
  Ni  Ni45      1.0  0.75000  0.50000  0.47222  1.0000
  Ni  Ni46      1.0  0.91731  0.41753  0.58342  1.0000
  Ni  Ni47      1.0  0.58333  0.08333  0.52778  1.0000
  Ni  Ni48      1.0  0.75633  0.24953  0.64551  1.0000
  Ni  Ni49      1.0  0.66758  0.41491  0.58369  1.0000
  Ni  Ni50      1.0  0.83333  0.08333  0.52778  1.0000
  Ni  Ni51      1.0  0.49412  0.24953  0.64550  1.0000
  Ni  Ni52      1.0  0.91365  0.16748  0.58440  1.0000
  Ni  Ni53      1.0  0.58333  0.33333  0.52778  1.0000
  Ni  Ni54      1.0  0.75287  0.49945  0.63815  1.0000
  Ni  Ni55      1.0  0.91667  0.91667  0.41667  1.0000
  Ni  Ni56      1.0  0.58333  0.58333  0.36111  1.0000
  Ni  Ni57      1.0  0.75000  0.75000  0.47222  1.0000
  Ni  Ni58      1.0  0.66667  0.91667  0.41667  1.0000
  Ni  Ni59      1.0  0.83333  0.58333  0.36111  1.0000
  Ni  Ni60      1.0  0.50000  0.75000  0.47222  1.0000
  Ni  Ni61      1.0  0.91667  0.66667  0.41667  1.0000
  Ni  Ni62      1.0  0.58333  0.83333  0.36111  1.0000
  Ni  Ni63      1.0  0.75000  0.00000  0.47222  1.0000
  Ni  Ni64      1.0  0.91569  0.91881  0.58351  1.0000
  Ni  Ni65      1.0  0.58333  0.58333  0.52778  1.0000
  Ni  Ni66      1.0  0.75081  0.74993  0.63816  1.0000
  Ni  Ni67      1.0  0.66548  0.91880  0.58351  1.0000
  Ni  Ni68      1.0  0.83333  0.58333  0.52778  1.0000
  Ni  Ni69      1.0  0.49953  0.75112  0.63780  1.0000
  Ni  Ni70      1.0  0.91745  0.66508  0.58340  1.0000
  Ni  Ni71      1.0  0.58333  0.83333  0.52778  1.0000
  Ni  Ni72      1.0  0.75052  0.99891  0.63931  1.0000
