data_image0
_chemical_formula_structural       C6H6Cu96
_chemical_formula_sum              "C6 H6 Cu96"
_cell_length_a       10.1144
_cell_length_b       10.1144
_cell_length_c       37.1627
_cell_angle_alpha    90
_cell_angle_beta     90
_cell_angle_gamma    120

_space_group_name_H-M_alt    "P 1"
_space_group_IT_number       1

loop_
  _space_group_symop_operation_xyz
  'x, y, z'

loop_
  _atom_site_type_symbol
  _atom_site_label
  _atom_site_symmetry_multiplicity
  _atom_site_fract_x
  _atom_site_fract_y
  _atom_site_fract_z
  _atom_site_occupancy
  C   C1        1.0  0.33513  0.66502  0.71641  1.0000
  C   C2        1.0  0.49597  0.74556  0.71633  1.0000
  C   C3        1.0  0.57622  0.66504  0.71641  1.0000
  C   C4        1.0  0.49591  0.50426  0.71635  1.0000
  C   C5        1.0  0.33514  0.42396  0.71641  1.0000
  C   C6        1.0  0.25461  0.50422  0.71634  1.0000
  H   H1        1.0  0.27274  0.72741  0.71575  1.0000
  H   H2        1.0  0.55827  0.87024  0.71575  1.0000
  H   H3        1.0  0.70092  0.72737  0.71576  1.0000
  H   H4        1.0  0.55827  0.44193  0.71577  1.0000
  H   H5        1.0  0.27281  0.29925  0.71577  1.0000
  H   H6        1.0  0.12994  0.44189  0.71576  1.0000
  Cu  Cu1       1.0  0.08333  0.16667  0.36111  1.0000
  Cu  Cu2       1.0  0.25000  0.00000  0.47222  1.0000
  Cu  Cu3       1.0  0.16667  0.08333  0.41667  1.0000
  Cu  Cu4       1.0  0.08362  0.16700  0.52795  1.0000
  Cu  Cu5       1.0  0.99925  0.24898  0.64015  1.0000
  Cu  Cu6       1.0  0.16668  0.08302  0.58355  1.0000
  Cu  Cu7       1.0  0.08333  0.41667  0.36111  1.0000
  Cu  Cu8       1.0  0.25000  0.25000  0.47222  1.0000
  Cu  Cu9       1.0  0.16667  0.33333  0.41667  1.0000
  Cu  Cu10      1.0  0.08366  0.41685  0.52802  1.0000
  Cu  Cu11      1.0  0.99922  0.49942  0.64018  1.0000
  Cu  Cu12      1.0  0.16661  0.33313  0.58374  1.0000
  Cu  Cu13      1.0  0.08333  0.66667  0.36111  1.0000
  Cu  Cu14      1.0  0.25000  0.50000  0.47222  1.0000
  Cu  Cu15      1.0  0.16667  0.58333  0.41667  1.0000
  Cu  Cu16      1.0  0.08361  0.66664  0.52796  1.0000
  Cu  Cu17      1.0  0.00011  0.74955  0.64032  1.0000
  Cu  Cu18      1.0  0.16658  0.58326  0.58375  1.0000
  Cu  Cu19      1.0  0.08333  0.91667  0.36111  1.0000
  Cu  Cu20      1.0  0.25000  0.75000  0.47222  1.0000
  Cu  Cu21      1.0  0.16667  0.83333  0.41667  1.0000
  Cu  Cu22      1.0  0.08344  0.91674  0.52790  1.0000
  Cu  Cu23      1.0  0.00013  0.99968  0.64026  1.0000
  Cu  Cu24      1.0  0.16666  0.83342  0.58357  1.0000
  Cu  Cu25      1.0  0.33333  0.16667  0.36111  1.0000
  Cu  Cu26      1.0  0.50000  0.00000  0.47222  1.0000
  Cu  Cu27      1.0  0.41667  0.08333  0.41667  1.0000
  Cu  Cu28      1.0  0.33354  0.16701  0.52795  1.0000
  Cu  Cu29      1.0  0.24965  0.24867  0.63989  1.0000
  Cu  Cu30      1.0  0.41667  0.08325  0.58352  1.0000
  Cu  Cu31      1.0  0.33333  0.41667  0.36111  1.0000
  Cu  Cu32      1.0  0.50000  0.25000  0.47222  1.0000
  Cu  Cu33      1.0  0.41667  0.33333  0.41667  1.0000
  Cu  Cu34      1.0  0.33362  0.41710  0.52815  1.0000
  Cu  Cu35      1.0  0.24797  0.49857  0.63990  1.0000
  Cu  Cu36      1.0  0.41684  0.33315  0.58376  1.0000
  Cu  Cu37      1.0  0.33333  0.66667  0.36111  1.0000
  Cu  Cu38      1.0  0.50000  0.50000  0.47222  1.0000
  Cu  Cu39      1.0  0.41667  0.58333  0.41667  1.0000
  Cu  Cu40      1.0  0.33363  0.66655  0.52815  1.0000
  Cu  Cu41      1.0  0.24964  0.75013  0.63989  1.0000
  Cu  Cu42      1.0  0.41680  0.58329  0.58434  1.0000
  Cu  Cu43      1.0  0.33333  0.91667  0.36111  1.0000
  Cu  Cu44      1.0  0.50000  0.75000  0.47222  1.0000
  Cu  Cu45      1.0  0.41667  0.83333  0.41667  1.0000
  Cu  Cu46      1.0  0.33354  0.91658  0.52795  1.0000
  Cu  Cu47      1.0  0.25022  0.99968  0.64028  1.0000
  Cu  Cu48      1.0  0.41683  0.83350  0.58374  1.0000
  Cu  Cu49      1.0  0.58333  0.16667  0.36111  1.0000
  Cu  Cu50      1.0  0.75000  0.00000  0.47222  1.0000
  Cu  Cu51      1.0  0.66667  0.08333  0.41667  1.0000
  Cu  Cu52      1.0  0.58339  0.16672  0.52796  1.0000
  Cu  Cu53      1.0  0.50037  0.24904  0.64018  1.0000
  Cu  Cu54      1.0  0.66692  0.08352  0.58365  1.0000
  Cu  Cu55      1.0  0.58333  0.41667  0.36111  1.0000
  Cu  Cu56      1.0  0.75000  0.25000  0.47222  1.0000
  Cu  Cu57      1.0  0.66667  0.33333  0.41667  1.0000
  Cu  Cu58      1.0  0.58332  0.41685  0.52802  1.0000
  Cu  Cu59      1.0  0.50113  0.49867  0.63994  1.0000
  Cu  Cu60      1.0  0.66691  0.33323  0.58367  1.0000
  Cu  Cu61      1.0  0.58333  0.66667  0.36111  1.0000
  Cu  Cu62      1.0  0.75000  0.50000  0.47222  1.0000
  Cu  Cu63      1.0  0.66667  0.58333  0.41667  1.0000
  Cu  Cu64      1.0  0.58306  0.66655  0.52816  1.0000
  Cu  Cu65      1.0  0.50126  0.75188  0.63988  1.0000
  Cu  Cu66      1.0  0.66698  0.58326  0.58377  1.0000
  Cu  Cu67      1.0  0.58333  0.91667  0.36111  1.0000
  Cu  Cu68      1.0  0.75000  0.75000  0.47222  1.0000
  Cu  Cu69      1.0  0.66667  0.83333  0.41667  1.0000
  Cu  Cu70      1.0  0.58332  0.91652  0.52801  1.0000
  Cu  Cu71      1.0  0.50040  0.00060  0.64014  1.0000
  Cu  Cu72      1.0  0.66699  0.83349  0.58374  1.0000
  Cu  Cu73      1.0  0.83333  0.16667  0.36111  1.0000
  Cu  Cu74      1.0  0.00000  0.00000  0.47222  1.0000
  Cu  Cu75      1.0  0.91667  0.08333  0.41667  1.0000
  Cu  Cu76      1.0  0.83346  0.16671  0.52795  1.0000
  Cu  Cu77      1.0  0.75015  0.24966  0.64045  1.0000
  Cu  Cu78      1.0  0.91689  0.08323  0.58351  1.0000
  Cu  Cu79      1.0  0.83333  0.41667  0.36111  1.0000
  Cu  Cu80      1.0  0.00000  0.25000  0.47222  1.0000
  Cu  Cu81      1.0  0.91667  0.33333  0.41667  1.0000
  Cu  Cu82      1.0  0.83346  0.41678  0.52797  1.0000
  Cu  Cu83      1.0  0.75077  0.49944  0.64020  1.0000
  Cu  Cu84      1.0  0.91662  0.33321  0.58366  1.0000
  Cu  Cu85      1.0  0.83333  0.66667  0.36111  1.0000
  Cu  Cu86      1.0  0.00000  0.50000  0.47222  1.0000
  Cu  Cu87      1.0  0.91667  0.58333  0.41667  1.0000
  Cu  Cu88      1.0  0.83316  0.66664  0.52796  1.0000
  Cu  Cu89      1.0  0.75115  0.75015  0.63991  1.0000
  Cu  Cu90      1.0  0.91686  0.58344  0.58354  1.0000
  Cu  Cu91      1.0  0.83333  0.91667  0.36111  1.0000
  Cu  Cu92      1.0  0.00000  0.75000  0.47222  1.0000
  Cu  Cu93      1.0  0.91667  0.83333  0.41667  1.0000
  Cu  Cu94      1.0  0.83317  0.91657  0.52795  1.0000
  Cu  Cu95      1.0  0.75085  0.00058  0.64014  1.0000
  Cu  Cu96      1.0  0.91708  0.83341  0.58356  1.0000
