data_image0
_chemical_formula_structural       C6H6Hf6Ni12Hf6Ni12Hf6Ni12Hf6Ni12
_chemical_formula_sum              "C6 H6 Hf24 Ni48"
_cell_length_a       9.68696
_cell_length_b       9.68696
_cell_length_c       35.5922
_cell_angle_alpha    90
_cell_angle_beta     90
_cell_angle_gamma    120

_space_group_name_H-M_alt    "P 1"
_space_group_IT_number       1

loop_
  _space_group_symop_operation_xyz
  'x, y, z'

loop_
  _atom_site_type_symbol
  _atom_site_label
  _atom_site_symmetry_multiplicity
  _atom_site_fract_x
  _atom_site_fract_y
  _atom_site_fract_z
  _atom_site_occupancy
  C   C1        1.0  0.24796  0.75206  0.69508  1.0000
  C   C2        1.0  0.41970  0.83938  0.69658  1.0000
  C   C3        1.0  0.50423  0.75211  0.69510  1.0000
  C   C4        1.0  0.41960  0.58033  0.69657  1.0000
  C   C5        1.0  0.24781  0.49576  0.69513  1.0000
  C   C6        1.0  0.16063  0.58032  0.69658  1.0000
  H   H1        1.0  0.18328  0.81676  0.69816  1.0000
  H   H2        1.0  0.48215  0.96425  0.70521  1.0000
  H   H3        1.0  0.63352  0.81668  0.69819  1.0000
  H   H4        1.0  0.48209  0.51783  0.70517  1.0000
  H   H5        1.0  0.18323  0.36648  0.69824  1.0000
  H   H6        1.0  0.03575  0.51793  0.70520  1.0000
  Hf  Hf1       1.0  0.49982  0.50027  0.48753  1.0000
  Hf  Hf2       1.0  0.33333  0.16667  0.37500  1.0000
  Hf  Hf3       1.0  0.16885  0.33778  0.60540  1.0000
  Hf  Hf4       1.0  0.00392  0.50214  0.57034  1.0000
  Hf  Hf5       1.0  0.33333  0.16667  0.45833  1.0000
  Hf  Hf6       1.0  0.16667  0.33333  0.34722  1.0000
  Ni  Ni1       1.0  0.16748  0.33467  0.47209  1.0000
  Ni  Ni2       1.0  0.00000  0.00000  0.36111  1.0000
  Ni  Ni3       1.0  0.33189  0.16588  0.58222  1.0000
  Ni  Ni4       1.0  0.41978  0.33485  0.63479  1.0000
  Ni  Ni5       1.0  0.24958  0.49911  0.52824  1.0000
  Ni  Ni6       1.0  0.08333  0.16667  0.41667  1.0000
  Ni  Ni7       1.0  0.00018  0.24983  0.52752  1.0000
  Ni  Ni8       1.0  0.33333  0.41667  0.41667  1.0000
  Ni  Ni9       1.0  0.16366  0.08199  0.63539  1.0000
  Ni  Ni10      1.0  0.41986  0.08506  0.63481  1.0000
  Ni  Ni11      1.0  0.25023  0.25010  0.52759  1.0000
  Ni  Ni12      1.0  0.08333  0.41667  0.41667  1.0000
  Hf  Hf7       1.0  0.49982  0.99965  0.48753  1.0000
  Hf  Hf8       1.0  0.33333  0.66667  0.37500  1.0000
  Hf  Hf9       1.0  0.16895  0.83120  0.60558  1.0000
  Hf  Hf10      1.0  0.00007  0.99988  0.57052  1.0000
  Hf  Hf11      1.0  0.33333  0.66667  0.45833  1.0000
  Hf  Hf12      1.0  0.16667  0.83333  0.34722  1.0000
  Ni  Ni13      1.0  0.16734  0.83272  0.47207  1.0000
  Ni  Ni14      1.0  0.00000  0.50000  0.36111  1.0000
  Ni  Ni15      1.0  0.33333  0.66672  0.58380  1.0000
  Ni  Ni16      1.0  0.41910  0.83810  0.63920  1.0000
  Ni  Ni17      1.0  0.25000  0.99996  0.52758  1.0000
  Ni  Ni18      1.0  0.08333  0.66667  0.41667  1.0000
  Ni  Ni19      1.0  0.99997  0.75001  0.52756  1.0000
  Ni  Ni20      1.0  0.33333  0.91667  0.41667  1.0000
  Ni  Ni21      1.0  0.16203  0.58097  0.63917  1.0000
  Ni  Ni22      1.0  0.41903  0.58097  0.63915  1.0000
  Ni  Ni23      1.0  0.24958  0.75048  0.52819  1.0000
  Ni  Ni24      1.0  0.08333  0.91667  0.41667  1.0000
  Hf  Hf13      1.0  0.00036  0.50011  0.48755  1.0000
  Hf  Hf14      1.0  0.83333  0.16667  0.37500  1.0000
  Hf  Hf15      1.0  0.66679  0.33374  0.60328  1.0000
  Hf  Hf16      1.0  0.49807  0.50189  0.57036  1.0000
  Hf  Hf17      1.0  0.83333  0.16667  0.45833  1.0000
  Hf  Hf18      1.0  0.66667  0.33333  0.34722  1.0000
  Ni  Ni25      1.0  0.66655  0.33348  0.47210  1.0000
  Ni  Ni26      1.0  0.50000  0.00000  0.36111  1.0000
  Ni  Ni27      1.0  0.83382  0.16637  0.58212  1.0000
  Ni  Ni28      1.0  0.91505  0.33498  0.63472  1.0000
  Ni  Ni29      1.0  0.75007  0.49973  0.52759  1.0000
  Ni  Ni30      1.0  0.58333  0.16667  0.41667  1.0000
  Ni  Ni31      1.0  0.50015  0.24996  0.52761  1.0000
  Ni  Ni32      1.0  0.83333  0.41667  0.41667  1.0000
  Ni  Ni33      1.0  0.66514  0.08494  0.63472  1.0000
  Ni  Ni34      1.0  0.91810  0.08188  0.63524  1.0000
  Ni  Ni35      1.0  0.74996  0.24991  0.52740  1.0000
  Ni  Ni36      1.0  0.58333  0.41667  0.41667  1.0000
  Hf  Hf19      1.0  0.00007  0.00011  0.48758  1.0000
  Hf  Hf20      1.0  0.83333  0.66667  0.37500  1.0000
  Hf  Hf21      1.0  0.66207  0.83108  0.60540  1.0000
  Hf  Hf22      1.0  0.49799  0.99629  0.57036  1.0000
  Hf  Hf23      1.0  0.83333  0.66667  0.45833  1.0000
  Hf  Hf24      1.0  0.66667  0.83333  0.34722  1.0000
  Ni  Ni37      1.0  0.66532  0.83271  0.47206  1.0000
  Ni  Ni38      1.0  0.50000  0.50000  0.36111  1.0000
  Ni  Ni39      1.0  0.83389  0.66784  0.58220  1.0000
  Ni  Ni40      1.0  0.91813  0.83645  0.63534  1.0000
  Ni  Ni41      1.0  0.75024  0.99977  0.52756  1.0000
  Ni  Ni42      1.0  0.58333  0.66667  0.41667  1.0000
  Ni  Ni43      1.0  0.50097  0.75053  0.52824  1.0000
  Ni  Ni44      1.0  0.83333  0.91667  0.41667  1.0000
  Ni  Ni45      1.0  0.66523  0.58044  0.63482  1.0000
  Ni  Ni46      1.0  0.91524  0.58059  0.63483  1.0000
  Ni  Ni47      1.0  0.74991  0.74974  0.52753  1.0000
  Ni  Ni48      1.0  0.58333  0.91667  0.41667  1.0000
