data_image0
_chemical_formula_structural       C6H6Nb6Ni12Nb6Ni12Nb6Ni12Nb6Ni12
_chemical_formula_sum              "C6 H6 Nb24 Ni48"
_cell_length_a       9.56005
_cell_length_b       9.56005
_cell_length_c       35.1259
_cell_angle_alpha    90
_cell_angle_beta     90
_cell_angle_gamma    120

_space_group_name_H-M_alt    "P 1"
_space_group_IT_number       1

loop_
  _space_group_symop_operation_xyz
  'x, y, z'

loop_
  _atom_site_type_symbol
  _atom_site_label
  _atom_site_symmetry_multiplicity
  _atom_site_fract_x
  _atom_site_fract_y
  _atom_site_fract_z
  _atom_site_occupancy
  C   C1        1.0  0.84993  0.50072  0.69865  1.0000
  C   C2        1.0  0.99918  0.65003  0.69867  1.0000
  C   C3        1.0  0.15088  0.65014  0.69870  1.0000
  C   C4        1.0  0.15094  0.50083  0.69873  1.0000
  C   C5        1.0  0.99925  0.34905  0.69871  1.0000
  C   C6        1.0  0.84986  0.34901  0.69867  1.0000
  H   H1        1.0  0.73671  0.49875  0.70447  1.0000
  H   H2        1.0  0.00106  0.76314  0.70448  1.0000
  H   H3        1.0  0.26207  0.76328  0.70458  1.0000
  H   H4        1.0  0.26224  0.49886  0.70460  1.0000
  H   H5        1.0  0.00121  0.23780  0.70455  1.0000
  H   H6        1.0  0.73677  0.23781  0.70453  1.0000
  Nb  Nb1       1.0  0.99993  0.49997  0.57210  1.0000
  Nb  Nb2       1.0  0.33333  0.16667  0.45833  1.0000
  Nb  Nb3       1.0  0.16667  0.33333  0.34722  1.0000
  Nb  Nb4       1.0  0.99723  0.99850  0.48791  1.0000
  Nb  Nb5       1.0  0.33333  0.16667  0.37500  1.0000
  Nb  Nb6       1.0  0.16583  0.33422  0.60399  1.0000
  Ni  Ni1       1.0  0.41808  0.08195  0.63726  1.0000
  Ni  Ni2       1.0  0.24948  0.25069  0.52763  1.0000
  Ni  Ni3       1.0  0.08333  0.41667  0.41667  1.0000
  Ni  Ni4       1.0  0.00094  0.25021  0.52680  1.0000
  Ni  Ni5       1.0  0.33333  0.41667  0.41667  1.0000
  Ni  Ni6       1.0  0.16397  0.08200  0.63726  1.0000
  Ni  Ni7       1.0  0.41807  0.33613  0.63727  1.0000
  Ni  Ni8       1.0  0.24993  0.49911  0.52678  1.0000
  Ni  Ni9       1.0  0.08333  0.16667  0.41667  1.0000
  Ni  Ni10      1.0  0.16766  0.33235  0.47158  1.0000
  Ni  Ni11      1.0  0.00000  0.00000  0.36111  1.0000
  Ni  Ni12      1.0  0.33329  0.16676  0.58201  1.0000
  Nb  Nb7       1.0  0.00416  0.00184  0.57094  1.0000
  Nb  Nb8       1.0  0.33333  0.66667  0.45833  1.0000
  Nb  Nb9       1.0  0.16667  0.83333  0.34722  1.0000
  Nb  Nb10      1.0  0.00005  0.50000  0.48864  1.0000
  Nb  Nb11      1.0  0.33333  0.66667  0.37500  1.0000
  Nb  Nb12      1.0  0.16604  0.83170  0.60403  1.0000
  Ni  Ni13      1.0  0.42142  0.58440  0.63569  1.0000
  Ni  Ni14      1.0  0.25008  0.75089  0.52676  1.0000
  Ni  Ni15      1.0  0.08333  0.91667  0.41667  1.0000
  Ni  Ni16      1.0  0.00091  0.75072  0.52683  1.0000
  Ni  Ni17      1.0  0.33333  0.91667  0.41667  1.0000
  Ni  Ni18      1.0  0.17297  0.58654  0.64185  1.0000
  Ni  Ni19      1.0  0.42151  0.83720  0.63565  1.0000
  Ni  Ni20      1.0  0.24956  0.99891  0.52761  1.0000
  Ni  Ni21      1.0  0.08333  0.66667  0.41667  1.0000
  Ni  Ni22      1.0  0.16753  0.83527  0.47159  1.0000
  Ni  Ni23      1.0  0.00000  0.50000  0.36111  1.0000
  Ni  Ni24      1.0  0.31714  0.65851  0.58224  1.0000
  Nb  Nb13      1.0  0.49814  0.49596  0.57096  1.0000
  Nb  Nb14      1.0  0.83333  0.16667  0.45833  1.0000
  Nb  Nb15      1.0  0.66667  0.33333  0.34722  1.0000
  Nb  Nb16      1.0  0.50158  0.99851  0.48790  1.0000
  Nb  Nb17      1.0  0.83333  0.16667  0.37500  1.0000
  Nb  Nb18      1.0  0.66835  0.33404  0.60405  1.0000
  Ni  Ni25      1.0  0.91561  0.07849  0.63568  1.0000
  Ni  Ni26      1.0  0.74925  0.25017  0.52677  1.0000
  Ni  Ni27      1.0  0.58333  0.41667  0.41667  1.0000
  Ni  Ni28      1.0  0.50131  0.25074  0.52767  1.0000
  Ni  Ni29      1.0  0.83333  0.41667  0.41667  1.0000
  Ni  Ni30      1.0  0.66286  0.07849  0.63568  1.0000
  Ni  Ni31      1.0  0.91378  0.32721  0.64182  1.0000
  Ni  Ni32      1.0  0.74919  0.49920  0.52683  1.0000
  Ni  Ni33      1.0  0.58333  0.16667  0.41667  1.0000
  Ni  Ni34      1.0  0.66473  0.33241  0.47159  1.0000
  Ni  Ni35      1.0  0.50000  0.00000  0.36111  1.0000
  Ni  Ni36      1.0  0.84148  0.18290  0.58226  1.0000
  Nb  Nb19      1.0  0.49815  0.00208  0.57092  1.0000
  Nb  Nb20      1.0  0.83333  0.66667  0.45833  1.0000
  Nb  Nb21      1.0  0.66667  0.83333  0.34722  1.0000
  Nb  Nb22      1.0  0.50149  0.50286  0.48792  1.0000
  Nb  Nb23      1.0  0.83333  0.66667  0.37500  1.0000
  Nb  Nb24      1.0  0.66653  0.83338  0.60186  1.0000
  Ni  Ni37      1.0  0.91353  0.58638  0.64188  1.0000
  Ni  Ni38      1.0  0.75002  0.75044  0.52957  1.0000
  Ni  Ni39      1.0  0.58333  0.91667  0.41667  1.0000
  Ni  Ni40      1.0  0.50046  0.75017  0.52941  1.0000
  Ni  Ni41      1.0  0.83333  0.91667  0.41667  1.0000
  Ni  Ni42      1.0  0.66289  0.58455  0.63570  1.0000
  Ni  Ni43      1.0  0.91575  0.83724  0.63568  1.0000
  Ni  Ni44      1.0  0.74989  0.99963  0.52945  1.0000
  Ni  Ni45      1.0  0.58333  0.66667  0.41667  1.0000
  Ni  Ni46      1.0  0.66693  0.83326  0.47282  1.0000
  Ni  Ni47      1.0  0.50000  0.50000  0.36111  1.0000
  Ni  Ni48      1.0  0.84156  0.65849  0.58232  1.0000
